[TITLE]
;;Project Title/Notes
Mandaue City Drainage Network Model
Generated from GIS data
2025-10-15 16:12

[OPTIONS]
;;Option             Value
FLOW_UNITS           CMS
INFILTRATION         HORTON
FLOW_ROUTING         DYNWAVE
LINK_OFFSETS         DEPTH
MIN_SLOPE            0
ALLOW_PONDING        YES
SKIP_STEADY_STATE    NO

START_DATE           01/01/2024
START_TIME           00:00:00
REPORT_START_DATE    01/01/2024
REPORT_START_TIME    00:00:00
END_DATE     01/01/2024
END_TIME     01:00:00
SWEEP_START          01/01
SWEEP_END            12/31
DRY_DAYS             0
REPORT_STEP          00:01:00
WET_STEP             00:05:00
DRY_STEP             01:00:00
ROUTING_STEP         00:00:05
RULE_STEP            00:00:00

INERTIAL_DAMPING     PARTIAL
NORMAL_FLOW_LIMITED  BOTH
FORCE_MAIN_EQUATION  H-W
VARIABLE_STEP        0.75
LENGTHENING_STEP     0
MIN_SURFAREA         12.566
MAX_TRIALS           8
HEAD_TOLERANCE       0.0015
SYS_FLOW_TOL         5
LAT_FLOW_TOL         5
MINIMUM_STEP         0.5
THREADS              1

[EVAPORATION]
;;Data Source    Parameters
;;-------------- ----------------
CONSTANT         0.0
DRY_ONLY         NO

[RAINGAGES]
;;Name           Format    Interval SCF      Source    
;;-------------- --------- ------ ------ ----------
RG1              INTENSITY 0:05     1.0      TIMESERIES TS_Rain         

[SUBCATCHMENTS]
;;Name           Rain Gage        Outlet           Area     %Imperv  Width    %Slope   CurbLen  SnowPack        
;;-------------- ---------------- ---------------- -------- -------- -------- -------- -------- ----------------
SC_I-0           RG1              I-0              2.930    0.0      171.2    0.2214   0                        
SC_I-1           RG1              I-1              4.273    0.0      206.7    0.1630   0                        
SC_I-2           RG1              I-2              2.949    43.6     171.7    0.0660   0                        
SC_I-3           RG1              I-3              3.316    0.0      182.1    0.0791   0                        
SC_I-4           RG1              I-4              2.254    50.0     150.1    0.0735   0                        
SC_I-5           RG1              I-5              9.887    35.0     314.4    0.0668   0                        
SC_I-6           RG1              I-6              6.284    34.8     250.7    0.0652   0                        
SC_I-7           RG1              I-7              1.995    35.0     141.3    0.0637   0                        
SC_I-8           RG1              I-8              0.601    35.0     77.5     0.1541   0                        
SC_I-9           RG1              I-9              5.324    35.0     230.7    0.0594   0                        
SC_I-10          RG1              I-10             3.326    0.0      182.4    0.1066   0                        
SC_I-11          RG1              I-11             6.036    0.0      245.7    0.1021   0                        
SC_I-12          RG1              I-12             5.462    0.0      233.7    0.1464   0                        
SC_I-13          RG1              I-13             7.602    35.0     275.7    0.0586   0                        
SC_I-14          RG1              I-14             6.961    35.0     263.8    0.0533   0                        
SC_I-15          RG1              I-15             6.352    35.0     252.0    0.0562   0                        
SC_I-16          RG1              I-16             0.302    35.0     55.0     0.0596   0                        
SC_I-17          RG1              I-17             1.258    0.0      112.2    0.0527   0                        
SC_I-20          RG1              I-20             3.006    35.0     173.4    0.0762   0                        
SC_I-21          RG1              I-21             6.005    0.0      245.1    0.0661   0                        
SC_I-22          RG1              I-22             4.678    0.0      216.3    0.0627   0                        
SC_I-23          RG1              I-23             4.333    35.0     208.2    0.0641   0                        
SC_I-24          RG1              I-24             1.733    35.0     131.6    0.0719   0                        
SC_I-26          RG1              I-26             6.076    35.0     246.5    0.0798   0                        
SC_I-27          RG1              I-27             2.379    50.0     154.2    0.0416   0                        
SC_I-28          RG1              I-28             0.343    35.0     58.5     0.0501   0                        
SC_I-29          RG1              I-29             2.658    49.9     163.0    0.0745   0                        
SC_I-30          RG1              I-30             1.041    50.0     102.0    0.0560   0                        
SC_I-31          RG1              I-31             1.114    50.0     105.6    0.0647   0                        
SC_I-32          RG1              I-32             0.171    50.0     41.3     0.0730   0                        
SC_I-33          RG1              I-33             3.091    50.0     175.8    0.0687   0                        
SC_I-34          RG1              I-34             8.157    22.8     285.6    0.1349   0                        
SC_I-35          RG1              I-35             2.641    35.0     162.5    0.0524   0                        
SC_I-36          RG1              I-36             6.680    44.8     258.5    0.1030   0                        
SC_I-37          RG1              I-37             1.170    50.0     108.1    0.0728   0                        
SC_I-38          RG1              I-38             4.428    35.0     210.4    0.0743   0                        
SC_I-39          RG1              I-39             1.395    35.0     118.1    0.0662   0                        
SC_I-40          RG1              I-40             3.957    49.5     198.9    0.0573   0                        
SC_I-41          RG1              I-41             4.196    50.0     204.8    0.0645   0                        
SC_I-42          RG1              I-42             0.616    50.0     78.5     0.0597   0                        
SC_I-43          RG1              I-43             3.381    50.0     183.9    0.0578   0                        
SC_I-44          RG1              I-44             3.198    35.0     178.8    0.0795   0                        
SC_I-45          RG1              I-45             1.886    35.0     137.3    0.0402   0                        
SC_I-46          RG1              I-46             0.128    50.0     35.7     0.1370   0                        
SC_I-47          RG1              I-47             3.571    50.0     189.0    0.0676   0                        
SC_I-48          RG1              I-48             0.765    50.0     87.5     0.0925   0                        
SC_I-49          RG1              I-49             4.917    50.0     221.7    0.0733   0                        
SC_I-50          RG1              I-50             7.333    35.0     270.8    0.0518   0                        
SC_I-51          RG1              I-51             0.482    50.0     69.4     0.0483   0                        
SC_I-52          RG1              I-52             3.887    50.0     197.2    0.0579   0                        
SC_I-53          RG1              I-53             1.205    50.0     109.8    0.0555   0                        
SC_I-54          RG1              I-54             9.546    35.0     309.0    0.0694   0                        
SC_I-55          RG1              I-55             1.647    50.0     128.3    0.0647   0                        
SC_I-56          RG1              I-56             3.535    50.5     188.0    0.0552   0                        
SC_I-57          RG1              I-57             3.365    50.0     183.4    0.0642   0                        
SC_I-58          RG1              I-58             2.180    49.6     147.6    0.0640   0                        
SC_I-59          RG1              I-59             1.737    50.0     131.8    0.0572   0                        
SC_I-60          RG1              I-60             2.927    13.9     171.1    0.0572   0                        
SC_I-61          RG1              I-61             3.609    0.0      190.0    0.0936   0                        
SC_I-63          RG1              I-63             2.518    50.0     158.7    0.0625   0                        
SC_I-64          RG1              I-64             1.062    50.0     103.0    0.0544   0                        
SC_I-65          RG1              I-65             3.173    0.0      178.1    0.0667   0                        
SC_I-66          RG1              I-66             0.427    35.0     65.4     0.1027   0                        
SC_I-67          RG1              I-67             2.746    50.0     165.7    0.0618   0                        
SC_I-68          RG1              I-68             0.701    50.0     83.7     0.0575   0                        
SC_I-69          RG1              I-69             4.153    57.0     203.8    0.0527   0                        
SC_I-71          RG1              I-71             2.526    0.0      158.9    0.1059   0                        
SC_I-72          RG1              I-72             1.294    50.0     113.8    0.0445   0                        
SC_I-73          RG1              I-73             0.952    50.0     97.6     0.0604   0                        
SC_I-74          RG1              I-74             1.142    50.0     106.9    0.0498   0                        
SC_I-75          RG1              I-75             4.287    60.0     207.1    0.0537   0                        
SC_I-76          RG1              I-76             1.033    49.6     101.7    0.0430   0                        
SC_I-77          RG1              I-77             2.007    50.0     141.7    0.0636   0                        
SC_I-78          RG1              I-78             2.145    0.0      146.4    0.0388   0                        
SC_I-79          RG1              I-79             2.732    35.0     165.3    0.0502   0                        
SC_I-80          RG1              I-80             1.100    35.0     104.9    0.0668   0                        
SC_I-81          RG1              I-81             8.482    0.0      291.2    0.1742   0                        
SC_I-82          RG1              I-82             5.684    53.0     238.4    0.0516   0                        
SC_I-83          RG1              I-83             10.106   0.0      317.9    0.1343   0                        
SC_I-84          RG1              I-84             1.509    35.0     122.8    0.0375   0                        
SC_I-85          RG1              I-85             2.992    0.0      173.0    0.0466   0                        
SC_I-86          RG1              I-86             2.352    35.0     153.4    0.0376   0                        
SC_I-87          RG1              I-87             2.785    35.0     166.9    0.0870   0                        
SC_I-88          RG1              I-88             5.617    35.0     237.0    0.0527   0                        
SC_I-89          RG1              I-89             0.465    35.0     68.2     0.0377   0                        
SC_I-90          RG1              I-90             2.771    35.0     166.4    0.0489   0                        
SC_I-91          RG1              I-91             4.425    35.0     210.4    0.0459   0                        
SC_I-92          RG1              I-92             6.165    35.0     248.3    0.0553   0                        
SC_I-93          RG1              I-93             6.301    35.0     251.0    0.0486   0                        
SC_I-94          RG1              I-94             4.028    35.0     200.7    0.0488   0                        
SC_I-95          RG1              I-95             2.754    35.0     165.9    0.0461   0                        
SC_I-96          RG1              I-96             7.565    35.0     275.1    0.0574   0                        
SC_I-97          RG1              I-97             5.159    35.0     227.1    0.0503   0                        
SC_I-98          RG1              I-98             0.318    3.4      56.4     0.0535   0                        
SC_I-99          RG1              I-99             5.175    35.0     227.5    0.0518   0                        
SC_I-100         RG1              I-100            0.952    38.5     97.6     0.1769   0                        
SC_I-101         RG1              I-101            3.005    35.0     173.3    0.0458   0                        
SC_I-102         RG1              I-102            6.680    33.7     258.5    0.0702   0                        
SC_I-103         RG1              I-103            4.850    22.1     220.2    0.1489   0                        
SC_I-104         RG1              I-104            2.019    35.0     142.1    0.0539   0                        
SC_I-105         RG1              I-105            0.360    35.0     60.0     0.0443   0                        
SC_I-106         RG1              I-106            4.792    35.0     218.9    0.0965   0                        
SC_I-107         RG1              I-107            4.019    0.0      200.5    0.0434   0                        
SC_I-108         RG1              I-108            1.532    35.0     123.8    0.0879   0                        
SC_I-109         RG1              I-109            1.502    0.0      122.6    0.1386   0                        
SC_I-110         RG1              I-110            6.822    35.0     261.2    0.0530   0                        
SC_I-111         RG1              I-111            0.241    35.0     49.1     0.0712   0                        
SC_I-112         RG1              I-112            0.745    35.0     86.3     0.1068   0                        
SC_I-113         RG1              I-113            0.679    35.0     82.4     0.1057   0                        
SC_I-114         RG1              I-114            5.133    0.0      226.6    0.0536   0                        
SC_I-115         RG1              I-115            1.450    35.0     120.4    0.0555   0                        
SC_I-117         RG1              I-117            2.522    51.7     158.8    0.1109   0                        
SC_I-118         RG1              I-118            0.773    50.0     87.9     0.0597   0                        
SC_I-119         RG1              I-119            6.496    35.0     254.9    0.1160   0                        
SC_I-120         RG1              I-120            0.862    50.0     92.8     0.0619   0                        
SC_I-121         RG1              I-121            0.090    59.8     30.0     0.0487   0                        
SC_I-122         RG1              I-122            1.290    35.0     113.6    0.0195   0                        
SC_I-123         RG1              I-123            0.790    0.0      88.9     0.1307   0                        
SC_I-124         RG1              I-124            1.586    50.0     125.9    0.0480   0                        
SC_I-125         RG1              I-125            1.953    50.0     139.7    0.0575   0                        
SC_I-126         RG1              I-126            2.007    10.8     141.7    0.0563   0                        
SC_I-127         RG1              I-127            4.851    35.0     220.2    0.0621   0                        
SC_I-128         RG1              I-128            1.569    10.5     125.2    0.0628   0                        
SC_I-129         RG1              I-129            0.581    0.0      76.2     0.1379   0                        
SC_I-130         RG1              I-130            3.656    100.0    191.2    0.1182   0                        
SC_I-131         RG1              I-131            2.927    40.4     171.1    0.0503   0                        
SC_I-132         RG1              I-132            6.031    47.0     245.6    0.0775   0                        
SC_I-133         RG1              I-133            0.851    35.0     92.3     0.0679   0                        
SC_I-134         RG1              I-134            0.704    0.0      83.9     0.0859   0                        
SC_I-135         RG1              I-135            0.128    35.0     35.8     0.0575   0                        
SC_I-136         RG1              I-136            5.686    35.0     238.5    0.0439   0                        
SC_I-137         RG1              I-137            3.833    0.0      195.8    0.0487   0                        
SC_I-138         RG1              I-138            0.951    35.0     97.5     0.0621   0                        
SC_I-139         RG1              I-139            1.158    35.0     107.6    0.0487   0                        
SC_I-140         RG1              I-140            3.533    50.5     188.0    0.0827   0                        
SC_I-141         RG1              I-141            5.485    0.0      234.2    0.0478   0                        
SC_I-142         RG1              I-142            0.932    50.0     96.5     0.0301   0                        
SC_I-143         RG1              I-143            0.635    50.0     79.7     0.0757   0                        
SC_ISD-1         RG1              ISD-1            0.176    50.0     41.9     0.0681   0                        
SC_ISD-2         RG1              ISD-2            0.215    50.0     46.3     0.0641   0                        
SC_ISD-3         RG1              ISD-3            0.218    50.0     46.7     0.0583   0                        
SC_ISD-4         RG1              ISD-4            0.174    50.0     41.7     0.0535   0                        
SC_ISD-5         RG1              ISD-5            0.221    50.0     47.0     0.0501   0                        
SC_ISD-6         RG1              ISD-6            0.213    50.0     46.2     0.0478   0                        
SC_ISD-7         RG1              ISD-7            0.155    50.0     39.3     0.0442   0                        
SC_ISD-8         RG1              ISD-8            0.220    50.0     47.0     0.0425   0                        
SC_ISD-9         RG1              ISD-9            0.219    50.0     46.8     0.0408   0                        
SC_ISD-10        RG1              ISD-10           0.164    50.0     40.5     0.0407   0                        
SC_ISD-11        RG1              ISD-11           0.174    50.0     41.7     0.0400   0                        
SC_ISD-12        RG1              ISD-12           0.136    50.0     36.9     0.0411   0                        
SC_ISD-13        RG1              ISD-13           0.135    50.0     36.8     0.0412   0                        
SC_ISD-14        RG1              ISD-14           0.167    50.0     40.9     0.0412   0                        
SC_ISD-15        RG1              ISD-15           0.212    50.0     46.0     0.0424   0                        
SC_ISD-16        RG1              ISD-16           0.206    50.0     45.4     0.0404   0                        
SC_ISD-17        RG1              ISD-17           0.164    50.0     40.6     0.0413   0                        
SC_ISD-18        RG1              ISD-18           0.140    50.0     37.4     0.0410   0                        
SC_ISD-19        RG1              ISD-19           0.128    50.0     35.8     0.0399   0                        
SC_ISD-20        RG1              ISD-20           0.131    50.0     36.3     0.0296   0                        
SC_ISD-21        RG1              ISD-21           0.140    50.0     37.4     0.0392   0                        
SC_ISD-22        RG1              ISD-22           0.218    50.0     46.7     0.0390   0                        
SC_ISD-23        RG1              ISD-23           0.182    50.0     42.6     0.0389   0                        
SC_ISD-24        RG1              ISD-24           0.131    50.0     36.2     0.0390   0                        
SC_ISD-25        RG1              ISD-25           0.131    50.0     36.1     0.0386   0                        
SC_ISD-26        RG1              ISD-26           0.135    50.0     36.7     0.0400   0                        
SC_ISD-27        RG1              ISD-27           0.219    50.0     46.8     0.0417   0                        
SC_ISD-28        RG1              ISD-28           0.185    50.0     43.0     0.0429   0                        
SC_ISD-29        RG1              ISD-29           0.090    50.0     30.0     0.0407   0                        
SC_ISD-30        RG1              ISD-30           0.090    50.0     30.1     0.0337   0                        
SC_ISD-31        RG1              ISD-31           0.102    50.0     31.9     0.0383   0                        
SC_ISD-32        RG1              ISD-32           0.129    50.0     35.9     0.0426   0                        
SC_ISD-33        RG1              ISD-33           0.134    50.0     36.6     0.0435   0                        
SC_ISD-34        RG1              ISD-34           0.108    50.0     32.9     0.0415   0                        
SC_ISD-35        RG1              ISD-35           0.129    50.0     35.9     0.0375   0                        
SC_ISD-36        RG1              ISD-36           0.145    50.0     38.0     0.0355   0                        
SC_ISD-37        RG1              ISD-37           0.112    50.0     33.5     0.0362   0                        
SC_ISD-38        RG1              ISD-38           0.140    50.0     37.4     0.0348   0                        
SC_ISD-39        RG1              ISD-39           0.103    50.0     32.1     0.0360   0                        
SC_ISD-40        RG1              ISD-40           0.136    50.0     36.8     0.0347   0                        
SC_ISD-41        RG1              ISD-41           0.115    50.0     33.9     0.0404   0                        
SC_ISD-42        RG1              ISD-42           0.133    50.0     36.5     0.0460   0                        
SC_ISD-43        RG1              ISD-43           0.126    50.0     35.5     0.0493   0                        
SC_ISD-44        RG1              ISD-44           0.107    50.0     32.8     0.0529   0                        
SC_ISD-45        RG1              ISD-45           0.148    50.0     38.5     0.0549   0                        
SC_ISD-46        RG1              ISD-46           0.130    50.0     36.0     0.0564   0                        
SC_ISD-47        RG1              ISD-47           0.112    50.0     33.5     0.0544   0                        
SC_ISD-48        RG1              ISD-48           0.241    50.0     49.1     0.0535   0                        
SC_ISD-49        RG1              ISD-49           0.240    50.0     49.0     0.0534   0                        
SC_ISD-50        RG1              ISD-50           0.147    50.0     38.3     0.0446   0                        
SC_ISD-51        RG1              ISD-51           0.185    50.0     43.1     0.0511   0                        
SC_ISD-52        RG1              ISD-52           0.178    50.0     42.1     0.0510   0                        
SC_ISD-53        RG1              ISD-53           0.125    50.0     35.3     0.0443   0                        
SC_ISD-54        RG1              ISD-54           0.118    50.0     34.3     0.0429   0                        
SC_ISD-55        RG1              ISD-55           0.125    50.0     35.3     0.0394   0                        
SC_ISD-56        RG1              ISD-56           0.123    50.0     35.1     0.0342   0                        
SC_ISD-57        RG1              ISD-57           0.124    50.0     35.3     0.0465   0                        
SC_ISD-58        RG1              ISD-58           0.175    50.0     41.8     0.0498   0                        
SC_ISD-59        RG1              ISD-59           0.186    50.0     43.1     0.0566   0                        
SC_ISD-60        RG1              ISD-60           0.125    50.0     35.4     0.0684   0                        
SC_ISD-61        RG1              ISD-61           0.127    50.0     35.6     0.0741   0                        
SC_ISD-62        RG1              ISD-62           0.129    49.9     35.9     0.0819   0                        
SC_ISD-63        RG1              ISD-63           0.120    50.0     34.6     0.0878   0                        
SC_ISD-64        RG1              ISD-64           0.125    50.0     35.3     0.0856   0                        
SC_ISD-65        RG1              ISD-65           0.696    49.3     83.4     0.0628   0                        
SC_ISD-66        RG1              ISD-66           1.184    0.0      108.8    0.0794   0                        
SC_ISD-67        RG1              ISD-67           0.783    35.0     88.5     0.1218   0                        
SC_ISD-68        RG1              ISD-68           0.372    35.0     61.0     0.1728   0                        
SC_ISD-69        RG1              ISD-69           0.659    35.0     81.2     0.0484   0                        
SC_ISD-70        RG1              ISD-70           0.317    35.0     56.3     0.1873   0                        
SC_ISD-71        RG1              ISD-71           0.373    35.0     61.1     0.1414   0                        
SC_ISD-72        RG1              ISD-72           0.302    35.0     54.9     0.1309   0                        
SC_ISD-73        RG1              ISD-73           0.270    35.0     52.0     0.1001   0                        
SC_ISD-74        RG1              ISD-74           0.211    35.0     45.9     0.0807   0                        
SC_ISD-75        RG1              ISD-75           0.193    35.0     43.9     0.0693   0                        
SC_ISD-76        RG1              ISD-76           0.170    35.0     41.3     0.0607   0                        
SC_ISD-77        RG1              ISD-77           0.213    35.0     46.2     0.0564   0                        
SC_ISD-78        RG1              ISD-78           0.212    35.0     46.1     0.0511   0                        
SC_ISD-79        RG1              ISD-79           0.139    35.0     37.3     0.0479   0                        
SC_ISD-80        RG1              ISD-80           0.152    35.0     39.0     0.0476   0                        
SC_ISD-81        RG1              ISD-81           0.159    35.0     39.9     0.0504   0                        
SC_ISD-82        RG1              ISD-82           0.128    35.0     35.8     0.0500   0                        
SC_ISD-83        RG1              ISD-83           0.117    35.0     34.2     0.0575   0                        
SC_ISD-84        RG1              ISD-84           0.118    35.0     34.4     0.0553   0                        
SC_ISD-85        RG1              ISD-85           0.137    35.0     37.0     0.0576   0                        
SC_ISD-86        RG1              ISD-86           0.141    35.0     37.5     0.0473   0                        
SC_ISD-87        RG1              ISD-87           0.135    35.0     36.8     0.0281   0                        
SC_ISD-88        RG1              ISD-88           0.136    35.0     36.9     0.0530   0                        
SC_ISD-89        RG1              ISD-89           0.129    35.0     35.8     0.0401   0                        
SC_ISD-90        RG1              ISD-90           0.186    35.0     43.2     0.0770   0                        
SC_ISD-91        RG1              ISD-91           0.194    35.0     44.0     0.0851   0                        
SC_ISD-92        RG1              ISD-92           0.141    35.0     37.5     0.0897   0                        
SC_ISD-93        RG1              ISD-93           0.126    35.0     35.4     0.0923   0                        
SC_ISD-94        RG1              ISD-94           0.127    35.0     35.6     0.0962   0                        
SC_ISD-95        RG1              ISD-95           0.140    35.0     37.4     0.1001   0                        
SC_ISD-96        RG1              ISD-96           0.132    35.0     36.3     0.1011   0                        
SC_ISD-97        RG1              ISD-97           0.133    35.0     36.4     0.1025   0                        
SC_ISD-98        RG1              ISD-98           0.132    35.0     36.3     0.1019   0                        
SC_ISD-99        RG1              ISD-99           0.143    35.0     37.9     0.1006   0                        
SC_ISD-100       RG1              ISD-100          0.142    35.0     37.7     0.0984   0                        
SC_ISD-101       RG1              ISD-101          0.202    35.0     44.9     0.0959   0                        
SC_ISD-102       RG1              ISD-102          0.194    35.0     44.0     0.0936   0                        
SC_ISD-103       RG1              ISD-103          0.130    35.0     36.0     0.0914   0                        
SC_ISD-104       RG1              ISD-104          0.133    35.0     36.4     0.0883   0                        
SC_ISD-105       RG1              ISD-105          0.138    35.0     37.1     0.0857   0                        
SC_ISD-106       RG1              ISD-106          0.210    35.0     45.8     0.0817   0                        
SC_ISD-107       RG1              ISD-107          0.205    35.0     45.3     0.0729   0                        
SC_ISD-108       RG1              ISD-108          0.138    0.0      37.1     0.0660   0                        
SC_ISD-109       RG1              ISD-109          5.322    0.0      230.7    0.0697   0                        
SC_ISD-110       RG1              ISD-110          0.169    25.3     41.1     0.0573   0                        
SC_ISD-111       RG1              ISD-111          0.161    15.5     40.2     0.0670   0                        
SC_ISD-112       RG1              ISD-112          0.174    36.1     41.7     0.0524   0                        
SC_ISD-113       RG1              ISD-113          0.130    42.6     36.0     0.0497   0                        